6322
  -OEChem-03252417583D

 26 25  0     1  0  0  0  0  0999 V2000
   -2.3027   -1.9535   -0.2040 O   0  0  0  0  0  0  0  0  0  0  0  0
   -3.4436   -0.5315    1.1465 O   0  0  0  0  0  0  0  0  0  0  0  0
   -2.8917    1.6021   -0.3339 N   0  0  0  0  0  0  0  0  0  0  0  0
    1.9642   -0.2357    0.0497 N   0  0  0  0  0  0  0  0  0  0  0  0
    3.9181   -1.4167   -0.3497 N   0  0  0  0  0  0  0  0  0  0  0  0
    4.1368    0.7627    0.2805 N   0  0  0  0  0  0  0  0  0  0  0  0
   -0.7698    0.4929   -0.8697 C   0  0  0  0  0  0  0  0  0  0  0  0
   -0.1713    0.8748    0.4921 C   0  0  0  0  0  0  0  0  0  0  0  0
   -2.2988    0.3560   -0.8131 C   0  0  1  0  0  0  0  0  0  0  0  0
    1.3447    1.0326    0.4373 C   0  0  0  0  0  0  0  0  0  0  0  0
   -2.7459   -0.7207    0.1586 C   0  0  0  0  0  0  0  0  0  0  0  0
    3.2599   -0.2630    0.0056 C   0  0  0  0  0  0  0  0  0  0  0  0
   -0.3371   -0.4537   -1.2146 H   0  0  0  0  0  0  0  0  0  0  0  0
   -0.4987    1.2540   -1.6125 H   0  0  0  0  0  0  0  0  0  0  0  0
   -0.5946    1.8211    0.8474 H   0  0  0  0  0  0  0  0  0  0  0  0
   -0.4186    0.1088    1.2369 H   0  0  0  0  0  0  0  0  0  0  0  0
   -2.7019    0.1202   -1.8038 H   0  0  0  0  0  0  0  0  0  0  0  0
    1.6008    1.8203   -0.2817 H   0  0  0  0  0  0  0  0  0  0  0  0
    1.6949    1.3401    1.4301 H   0  0  0  0  0  0  0  0  0  0  0  0
   -3.9080    1.5421   -0.3876 H   0  0  0  0  0  0  0  0  0  0  0  0
   -2.6212    2.3685   -0.9492 H   0  0  0  0  0  0  0  0  0  0  0  0
   -2.6025   -2.6477    0.4208 H   0  0  0  0  0  0  0  0  0  0  0  0
    3.4065   -2.2611   -0.5818 H   0  0  0  0  0  0  0  0  0  0  0  0
    4.9305   -1.4589   -0.3900 H   0  0  0  0  0  0  0  0  0  0  0  0
    5.1395    0.6251    0.2127 H   0  0  0  0  0  0  0  0  0  0  0  0
    3.8208    1.6857    0.5561 H   0  0  0  0  0  0  0  0  0  0  0  0
  1 11  1  0  0  0  0
  1 22  1  0  0  0  0
  2 11  2  0  0  0  0
  3  9  1  0  0  0  0
  3 20  1  0  0  0  0
  3 21  1  0  0  0  0
  4 10  1  0  0  0  0
  4 12  2  0  0  0  0
  5 12  1  0  0  0  0
  5 23  1  0  0  0  0
  5 24  1  0  0  0  0
  6 12  1  0  0  0  0
  6 25  1  0  0  0  0
  6 26  1  0  0  0  0
  7  8  1  0  0  0  0
  7  9  1  0  0  0  0
  7 13  1  0  0  0  0
  7 14  1  0  0  0  0
  8 10  1  0  0  0  0
  8 15  1  0  0  0  0
  8 16  1  0  0  0  0
  9 11  1  0  0  0  0
  9 17  1  0  0  0  0
 10 18  1  0  0  0  0
 10 19  1  0  0  0  0
M  END
> <PUBCHEM_COMPOUND_CID>
6322

> <PUBCHEM_CONFORMER_RMSD>
0.6

> <PUBCHEM_CONFORMER_DIVERSEORDER>
4
72
17
12
96
27
83
58
63
38
85
93
9
33
82
5
87
52
3
81
32
55
76
56
91
70
34
64
45
89
95
84
22
41
74
49
77
61
67
44
92
24
1
75
13
6
88
79
62
25
78
31
46
90
11
40
15
53
69
57
39
47
16
73
14
86
60
29
2
59
68
66
50
23
94
8
48
80
36
10
18
21
20
7
51
30
71
19
26
43
65
54
28
42
35
37

> <PUBCHEM_MMFF94_PARTIAL_CHARGES>
17
1 -0.65
10 0.25
11 0.66
12 0.55
2 -0.57
20 0.36
21 0.36
22 0.5
23 0.4
24 0.4
25 0.4
26 0.4
3 -0.99
4 -0.7
5 -0.85
6 -0.85
9 0.33

> <PUBCHEM_EFFECTIVE_ROTOR_COUNT>
5

> <PUBCHEM_PHARMACOPHORE_FEATURES>
8
1 1 acceptor
1 2 acceptor
1 3 cation
1 3 donor
1 5 donor
1 6 donor
3 1 2 11 anion
4 4 5 6 12 cation

> <PUBCHEM_HEAVY_ATOM_COUNT>
12

> <PUBCHEM_ATOM_DEF_STEREO_COUNT>
1

> <PUBCHEM_ATOM_UDEF_STEREO_COUNT>
0

> <PUBCHEM_BOND_DEF_STEREO_COUNT>
0

> <PUBCHEM_BOND_UDEF_STEREO_COUNT>
0

> <PUBCHEM_ISOTOPIC_ATOM_COUNT>
0

> <PUBCHEM_COMPONENT_COUNT>
1

> <PUBCHEM_CACTVS_TAUTO_COUNT>
2

> <PUBCHEM_CONFORMER_ID>
000018B200000004

> <PUBCHEM_MMFF94_ENERGY>
18.4327

> <PUBCHEM_FEATURE_SELFOVERLAP>
40.711

> <PUBCHEM_SHAPE_FINGERPRINT>
12162725 195 9223238446313502218
124424 183 17845929645768177277
12932764 1 17240472577217501004
13296908 3 18411978049000373580
14325111 11 18409444778510252228
14577589 140 18408322164295491679
17834074 16 18408322176974834030
18186145 218 17822006476435071116
190213 19 18113616781115697676
20201158 50 18342454824669094654
20279233 1 18341885290657058284
20281407 28 18413106173557857224
20645464 45 18131077017538680503
20645477 70 17988071180765860582
21293036 1 13984663676183150257
22485316 2 18411696591097991602
23402539 116 16370714921130949868
449060 23 18041275577539281571
528716 315 17022904549191671731

> <PUBCHEM_SHAPE_MULTIPOLES>
215.29
7.45
1.49
0.86
5.19
0.34
-0.02
1.58
-0.42
-0.48
0.06
-0.48
-0.04
0.59

> <PUBCHEM_SHAPE_SELFOVERLAP>
408.397

> <PUBCHEM_SHAPE_VOLUME>
130.7

> <PUBCHEM_COORDINATE_TYPE>
2
5
10

$$$$
5287702
  -OEChem-03252417583D

 27 26  0     1  0  0  0  0  0999 V2000
   -2.1763    1.9526    0.1676 O   0  0  0  0  0  0  0  0  0  0  0  0
   -3.5050    0.6192   -1.0964 O   0  0  0  0  0  0  0  0  0  0  0  0
    1.9746    0.1796   -0.1004 N   0  3  0  0  0  0  0  0  0  0  0  0
   -3.0441   -1.5660    0.4647 N   0  0  0  0  0  0  0  0  0  0  0  0
    3.9680    1.4671    0.4358 N   0  0  0  0  0  0  0  0  0  0  0  0
    4.1540   -0.8244   -0.2492 N   0  0  0  0  0  0  0  0  0  0  0  0
   -0.7941   -0.5619    0.7938 C   0  0  0  0  0  0  0  0  0  0  0  0
   -0.1988   -0.9072   -0.5796 C   0  0  0  0  0  0  0  0  0  0  0  0
   -2.3149   -0.3442    0.8049 C   0  0  1  0  0  0  0  0  0  0  0  0
    1.3192   -1.0556   -0.5241 C   0  0  0  0  0  0  0  0  0  0  0  0
   -2.7434    0.7581   -0.1480 C   0  0  0  0  0  0  0  0  0  0  0  0
    3.3608    0.2829    0.0310 C   0  0  0  0  0  0  0  0  0  0  0  0
   -0.5431   -1.3628    1.5018 H   0  0  0  0  0  0  0  0  0  0  0  0
   -0.3171    0.3452    1.1834 H   0  0  0  0  0  0  0  0  0  0  0  0
   -0.6280   -1.8434   -0.9531 H   0  0  0  0  0  0  0  0  0  0  0  0
   -0.4484   -0.1209   -1.3011 H   0  0  0  0  0  0  0  0  0  0  0  0
   -2.6277   -0.0458    1.8123 H   0  0  0  0  0  0  0  0  0  0  0  0
    1.6853   -1.3146   -1.5231 H   0  0  0  0  0  0  0  0  0  0  0  0
    1.5816   -1.8501    0.1826 H   0  0  0  0  0  0  0  0  0  0  0  0
    1.4250    1.0152    0.0892 H   0  0  0  0  0  0  0  0  0  0  0  0
   -2.8459   -1.8387   -0.4968 H   0  0  0  0  0  0  0  0  0  0  0  0
   -4.0475   -1.3930    0.5125 H   0  0  0  0  0  0  0  0  0  0  0  0
   -2.4523    2.6625   -0.4505 H   0  0  0  0  0  0  0  0  0  0  0  0
    3.4160    2.2945    0.6484 H   0  0  0  0  0  0  0  0  0  0  0  0
    4.9784    1.5364    0.5299 H   0  0  0  0  0  0  0  0  0  0  0  0
    3.7631   -1.7131   -0.5496 H   0  0  0  0  0  0  0  0  0  0  0  0
    5.1663   -0.7740   -0.1606 H   0  0  0  0  0  0  0  0  0  0  0  0
  1 11  1  0  0  0  0
  1 23  1  0  0  0  0
  2 11  2  0  0  0  0
  3 10  1  0  0  0  0
  3 12  2  0  0  0  0
  3 20  1  0  0  0  0
  4  9  1  0  0  0  0
  4 21  1  0  0  0  0
  4 22  1  0  0  0  0
  5 12  1  0  0  0  0
  5 24  1  0  0  0  0
  5 25  1  0  0  0  0
  6 12  1  0  0  0  0
  6 26  1  0  0  0  0
  6 27  1  0  0  0  0
  7  8  1  0  0  0  0
  7  9  1  0  0  0  0
  7 13  1  0  0  0  0
  7 14  1  0  0  0  0
  8 10  1  0  0  0  0
  8 15  1  0  0  0  0
  8 16  1  0  0  0  0
  9 11  1  0  0  0  0
  9 17  1  0  0  0  0
 10 18  1  0  0  0  0
 10 19  1  0  0  0  0
M  CHG  1   3   1
M  END
> <PUBCHEM_COMPOUND_CID>
5287702

> <PUBCHEM_CONFORMER_RMSD>
0.6

> <PUBCHEM_CONFORMER_DIVERSEORDER>
3
81
10
89
93
39
51
67
90
17
91
21
48
68
14
92
1
61
7
25
71
74
88
53
84
85
27
45
19
87
69
64
11
63
58
5
70
38
76
37
22
80
83
75
30
72
62
2
41
82
24
16
6
40
33
65
35
18
28
52
78
31
8
32
73
15
57
4
12
55
56
13
23
44
79
9
77
36
20
54
60
34
29
86
59
66
26
47
50
42
43
46
49

> <PUBCHEM_MMFF94_PARTIAL_CHARGES>
18
1 -0.65
10 0.33
11 0.66
12 1.2
2 -0.57
20 0.45
21 0.36
22 0.36
23 0.5
24 0.45
25 0.45
26 0.45
27 0.45
3 -0.84
4 -0.99
5 -0.97
6 -0.97
9 0.33

> <PUBCHEM_EFFECTIVE_ROTOR_COUNT>
5

> <PUBCHEM_PHARMACOPHORE_FEATURES>
9
1 1 acceptor
1 2 acceptor
1 3 donor
1 4 cation
1 4 donor
1 5 donor
1 6 donor
3 1 2 11 anion
4 3 5 6 12 cation

> <PUBCHEM_HEAVY_ATOM_COUNT>
12

> <PUBCHEM_ATOM_DEF_STEREO_COUNT>
1

> <PUBCHEM_ATOM_UDEF_STEREO_COUNT>
0

> <PUBCHEM_BOND_DEF_STEREO_COUNT>
0

> <PUBCHEM_BOND_UDEF_STEREO_COUNT>
0

> <PUBCHEM_ISOTOPIC_ATOM_COUNT>
0

> <PUBCHEM_COMPONENT_COUNT>
1

> <PUBCHEM_CACTVS_TAUTO_COUNT>
2

> <PUBCHEM_CONFORMER_ID>
0050AF1600000003

> <PUBCHEM_MMFF94_ENERGY>
6.0081

> <PUBCHEM_FEATURE_SELFOVERLAP>
45.82

> <PUBCHEM_SHAPE_FINGERPRINT>
10608611 8 18411983546468867648
12162725 195 18412545370987941552
124424 183 18335983082438279098
12932764 1 18336564727920506026
13296909 8 17967252022472490815
14325111 11 18412266146806183122
14577589 140 9727639401577110769
18186145 218 17988937669022177642
19107657 47 18411135810261388378
20281407 28 8070025558403858142
20645477 56 18262808363164344341
23402539 116 18334289899214781775
23557571 272 18338249223121482919
305870 269 17604145913544149979
449060 23 11599708567889380717
528716 315 13901907812700891509
548570 60 18411132541696583808
57812782 119 18343021081910591194
6333449 129 18408888425695214763

> <PUBCHEM_SHAPE_MULTIPOLES>
215.29
7.62
1.53
0.87
5.39
0.37
-0.02
1.59
-0.14
-0.4
0.06
-0.45
-0.05
0.72

> <PUBCHEM_SHAPE_SELFOVERLAP>
402.335

> <PUBCHEM_SHAPE_VOLUME>
130.1

> <PUBCHEM_COORDINATE_TYPE>
2
5
10

$$$$
28782
  -OEChem-03252417583D

 26 25  0     1  0  0  0  0  0999 V2000
    3.1629    0.7549    1.2172 O   0  5  0  0  0  0  0  0  0  0  0  0
    3.7407    0.8145   -0.9916 O   0  0  0  0  0  0  0  0  0  0  0  0
   -2.2286   -0.1177   -0.3641 N   0  3  0  0  0  0  0  0  0  0  0  0
    2.6803   -1.9117    0.4623 N   0  0  0  0  0  0  0  0  0  0  0  0
   -4.4172   -1.1761   -0.2710 N   0  0  0  0  0  0  0  0  0  0  0  0
   -4.0771    0.9906    0.7012 N   0  0  0  0  0  0  0  0  0  0  0  0
    0.6864   -0.5449    0.1193 C   0  0  0  0  0  0  0  0  0  0  0  0
    0.0986    0.7110   -0.5379 C   0  0  0  0  0  0  0  0  0  0  0  0
    2.1422   -0.7798   -0.2955 C   0  0  1  0  0  0  0  0  0  0  0  0
   -1.3257    0.9929   -0.0704 C   0  0  0  0  0  0  0  0  0  0  0  0
    3.1091    0.3763    0.0136 C   0  0  0  0  0  0  0  0  0  0  0  0
   -3.5717   -0.1097    0.0170 C   0  0  0  0  0  0  0  0  0  0  0  0
    0.0905   -1.4269   -0.1438 H   0  0  0  0  0  0  0  0  0  0  0  0
    0.6201   -0.4315    1.2097 H   0  0  0  0  0  0  0  0  0  0  0  0
    0.7152    1.5878   -0.3116 H   0  0  0  0  0  0  0  0  0  0  0  0
    0.1044    0.5804   -1.6268 H   0  0  0  0  0  0  0  0  0  0  0  0
    2.1789   -1.0180   -1.3656 H   0  0  0  0  0  0  0  0  0  0  0  0
   -1.6988    1.8855   -0.5831 H   0  0  0  0  0  0  0  0  0  0  0  0
   -1.3227    1.1632    1.0115 H   0  0  0  0  0  0  0  0  0  0  0  0
   -1.8952   -0.9295   -0.8799 H   0  0  0  0  0  0  0  0  0  0  0  0
    3.6034   -2.1558    0.1043 H   0  0  0  0  0  0  0  0  0  0  0  0
    2.0948   -2.7327    0.3129 H   0  0  0  0  0  0  0  0  0  0  0  0
   -4.0784   -1.9953   -0.7696 H   0  0  0  0  0  0  0  0  0  0  0  0
   -5.3948   -1.1646    0.0093 H   0  0  0  0  0  0  0  0  0  0  0  0
   -3.5052    1.7979    0.9338 H   0  0  0  0  0  0  0  0  0  0  0  0
   -5.0522    1.0193    0.9904 H   0  0  0  0  0  0  0  0  0  0  0  0
  1 11  1  0  0  0  0
  2 11  2  0  0  0  0
  3 10  1  0  0  0  0
  3 12  2  0  0  0  0
  3 20  1  0  0  0  0
  4  9  1  0  0  0  0
  4 21  1  0  0  0  0
  4 22  1  0  0  0  0
  5 12  1  0  0  0  0
  5 23  1  0  0  0  0
  5 24  1  0  0  0  0
  6 12  1  0  0  0  0
  6 25  1  0  0  0  0
  6 26  1  0  0  0  0
  7  8  1  0  0  0  0
  7  9  1  0  0  0  0
  7 13  1  0  0  0  0
  7 14  1  0  0  0  0
  8 10  1  0  0  0  0
  8 15  1  0  0  0  0
  8 16  1  0  0  0  0
  9 11  1  0  0  0  0
  9 17  1  0  0  0  0
 10 18  1  0  0  0  0
 10 19  1  0  0  0  0
M  CHG  2   1  -1   3   1
M  END
> <PUBCHEM_COMPOUND_CID>
28782

> <PUBCHEM_CONFORMER_RMSD>
0.6

> <PUBCHEM_CONFORMER_DIVERSEORDER>
2
60
79
32
86
15
70
90
87
7
12
52
27
78
16
85
30
61
3
62
17
89
81
22
84
36
75
76
20
71
64
65
77
55
42
88
29
13
1
57
91
31
19
23
83
45
26
68
82
59
54
46
6
9
74
56
4
67
80
8
43
33
5
21
58
47
66
40
18
63
14
37
73
10
44
24
50
53
11
25
72
48
69
34
51
38
35
28
49
41
39

> <PUBCHEM_MMFF94_PARTIAL_CHARGES>
17
1 -0.9
10 0.33
11 0.91
12 1.2
2 -0.9
20 0.45
21 0.36
22 0.36
23 0.45
24 0.45
25 0.45
26 0.45
3 -0.84
4 -0.99
5 -0.97
6 -0.97
9 0.16

> <PUBCHEM_EFFECTIVE_ROTOR_COUNT>
5

> <PUBCHEM_PHARMACOPHORE_FEATURES>
9
1 1 acceptor
1 2 acceptor
1 3 donor
1 4 cation
1 4 donor
1 5 donor
1 6 donor
3 1 2 11 anion
4 3 5 6 12 cation

> <PUBCHEM_HEAVY_ATOM_COUNT>
12

> <PUBCHEM_ATOM_DEF_STEREO_COUNT>
1

> <PUBCHEM_ATOM_UDEF_STEREO_COUNT>
0

> <PUBCHEM_BOND_DEF_STEREO_COUNT>
0

> <PUBCHEM_BOND_UDEF_STEREO_COUNT>
0

> <PUBCHEM_ISOTOPIC_ATOM_COUNT>
0

> <PUBCHEM_COMPONENT_COUNT>
1

> <PUBCHEM_CACTVS_TAUTO_COUNT>
2

> <PUBCHEM_CONFORMER_ID>
0000706E00000002

> <PUBCHEM_MMFF94_ENERGY>
7.9317

> <PUBCHEM_FEATURE_SELFOVERLAP>
45.816

> <PUBCHEM_SHAPE_FINGERPRINT>
11062470 55 16732702765728893037
12932764 1 17988350512200559652
13296908 3 18114175277177340717
14251717 144 18259984902776306695
14325111 11 18410011005323162903
14445660 50 18342746187140380201
18186145 218 18336266738915510855
18511873 20 9799692592904373196
190213 19 18342455941629376549
19050596 39 18341327803759723211
19422 9 18340488876609392915
20279233 1 16442784626628382483
20281407 28 18408885127128695909
20281475 54 18408040706445922135
20645477 70 18261948536313203727
20828058 21 17132115749434173325
22485316 2 18408319978310170775
23402539 116 11602815839368191571
449060 62 18409453591820027996
522135 26 12535631578603604668
57812782 119 12973602244250257077
581208 293 18259702298307690530
6430166 295 9871480798299090359

> <PUBCHEM_SHAPE_MULTIPOLES>
215.29
8.5
1.33
0.84
5.5
0.42
0.07
0.32
0.48
-0.35
0.09
-0.43
-0.15
-0.44

> <PUBCHEM_SHAPE_SELFOVERLAP>
403.323

> <PUBCHEM_SHAPE_VOLUME>
130.1

> <PUBCHEM_COORDINATE_TYPE>
2
5
10

$$$$
444360
  -OEChem-03252417583D

 28 27  0     1  0  0  0  0  0999 V2000
   -3.1303   -1.0114   -1.4911 O   0  0  0  0  0  0  0  0  0  0  0  0
   -3.7777   -1.1423    0.6803 O   0  0  0  0  0  0  0  0  0  0  0  0
   -2.3806    1.1051    1.4088 N   0  3  0  0  0  0  0  0  0  0  0  0
    2.1357    0.0614    0.3262 N   0  3  0  0  0  0  0  0  0  0  0  0
    3.9071   -1.4780    0.9676 N   0  0  0  0  0  0  0  0  0  0  0  0
    4.2177    0.0260   -0.8752 N   0  0  0  0  0  0  0  0  0  0  0  0
   -0.7787    0.2759   -0.2817 C   0  0  0  0  0  0  0  0  0  0  0  0
   -2.2441    0.6201    0.0040 C   0  0  1  0  0  0  0  0  0  0  0  0
    0.1639    1.4793   -0.1616 C   0  0  0  0  0  0  0  0  0  0  0  0
    1.6022    1.1222   -0.5252 C   0  0  0  0  0  0  0  0  0  0  0  0
   -3.1301   -0.5903   -0.1995 C   0  0  0  0  0  0  0  0  0  0  0  0
    3.4151   -0.4680    0.1474 C   0  0  0  0  0  0  0  0  0  0  0  0
   -0.4602   -0.5289    0.3925 H   0  0  0  0  0  0  0  0  0  0  0  0
   -0.6935   -0.1310   -1.2976 H   0  0  0  0  0  0  0  0  0  0  0  0
   -2.6083    1.4344   -0.6310 H   0  0  0  0  0  0  0  0  0  0  0  0
    0.1548    1.8596    0.8659 H   0  0  0  0  0  0  0  0  0  0  0  0
   -0.1819    2.2885   -0.8150 H   0  0  0  0  0  0  0  0  0  0  0  0
    2.2311    2.0105   -0.4053 H   0  0  0  0  0  0  0  0  0  0  0  0
    1.6368    0.7840   -1.5664 H   0  0  0  0  0  0  0  0  0  0  0  0
   -1.8963    2.0003    1.5550 H   0  0  0  0  0  0  0  0  0  0  0  0
   -2.0000    0.4295    2.0851 H   0  0  0  0  0  0  0  0  0  0  0  0
   -3.3682    1.2598    1.6532 H   0  0  0  0  0  0  0  0  0  0  0  0
    1.5816   -0.3085    1.0959 H   0  0  0  0  0  0  0  0  0  0  0  0
   -3.7041   -1.7966   -1.6194 H   0  0  0  0  0  0  0  0  0  0  0  0
    3.3453   -1.8608    1.7241 H   0  0  0  0  0  0  0  0  0  0  0  0
    4.8402   -1.8597    0.8326 H   0  0  0  0  0  0  0  0  0  0  0  0
    3.9103    0.7656   -1.5008 H   0  0  0  0  0  0  0  0  0  0  0  0
    5.1533   -0.3444   -1.0261 H   0  0  0  0  0  0  0  0  0  0  0  0
  1 11  1  0  0  0  0
  1 24  1  0  0  0  0
  2 11  2  0  0  0  0
  3  8  1  0  0  0  0
  3 20  1  0  0  0  0
  3 21  1  0  0  0  0
  3 22  1  0  0  0  0
  4 10  1  0  0  0  0
  4 12  2  0  0  0  0
  4 23  1  0  0  0  0
  5 12  1  0  0  0  0
  5 25  1  0  0  0  0
  5 26  1  0  0  0  0
  6 12  1  0  0  0  0
  6 27  1  0  0  0  0
  6 28  1  0  0  0  0
  7  8  1  0  0  0  0
  7  9  1  0  0  0  0
  7 13  1  0  0  0  0
  7 14  1  0  0  0  0
  8 11  1  0  0  0  0
  8 15  1  0  0  0  0
  9 10  1  0  0  0  0
  9 16  1  0  0  0  0
  9 17  1  0  0  0  0
 10 18  1  0  0  0  0
 10 19  1  0  0  0  0
M  CHG  2   3   1   4   1
M  END
> <PUBCHEM_COMPOUND_CID>
444360

> <PUBCHEM_CONFORMER_RMSD>
0.6

> <PUBCHEM_CONFORMER_DIVERSEORDER>
4
84
40
81
90
24
71
83
53
87
23
41
33
88
16
91
25
89
44
76
20
79
78
5
67
75
80
9
42
72
92
8
86
22
62
56
19
43
49
47
34
73
12
93
35
31
64
3
17
32
85
68
74
15
27
51
21
6
50
36
63
38
46
82
52
37
69
13
29
61
14
55
54
45
60
26
66
70
11
77
2
7
48
28
57
1
10
65
30
18
58
39
59

> <PUBCHEM_MMFF94_PARTIAL_CHARGES>
19
1 -0.65
10 0.33
11 0.66
12 1.2
2 -0.57
20 0.45
21 0.45
22 0.45
23 0.45
24 0.5
25 0.45
26 0.45
27 0.45
28 0.45
3 -0.85
4 -0.84
5 -0.97
6 -0.97
8 0.56

> <PUBCHEM_EFFECTIVE_ROTOR_COUNT>
5

> <PUBCHEM_PHARMACOPHORE_FEATURES>
9
1 1 acceptor
1 2 acceptor
1 3 cation
1 3 donor
1 4 donor
1 5 donor
1 6 donor
3 1 2 11 anion
4 4 5 6 12 cation

> <PUBCHEM_HEAVY_ATOM_COUNT>
12

> <PUBCHEM_ATOM_DEF_STEREO_COUNT>
1

> <PUBCHEM_ATOM_UDEF_STEREO_COUNT>
0

> <PUBCHEM_BOND_DEF_STEREO_COUNT>
0

> <PUBCHEM_BOND_UDEF_STEREO_COUNT>
0

> <PUBCHEM_ISOTOPIC_ATOM_COUNT>
0

> <PUBCHEM_COMPONENT_COUNT>
1

> <PUBCHEM_CACTVS_TAUTO_COUNT>
2

> <PUBCHEM_CONFORMER_ID>
0006C7C800000004

> <PUBCHEM_MMFF94_ENERGY>
8.5765

> <PUBCHEM_FEATURE_SELFOVERLAP>
45.82

> <PUBCHEM_SHAPE_FINGERPRINT>
11137873 295 17676485021381837603
14251710 61 18408890658666920987
15239191 94 18412261748532870726
177051 138 18131068268141756725
18186145 218 14851613141846077364
18342897 69 18131350842920206413
19422 9 18335144159292636040
20281407 28 18261109651864288720
20281475 54 18187085031529342936
20645464 45 14548746109844424693
20645477 70 17386001737552625730
20671657 53 18040435499095123348
20871999 31 14057011558924426353
22485316 2 18333729100623036332

> <PUBCHEM_SHAPE_MULTIPOLES>
215.29
8.19
1.4
1.07
3.74
0.01
-0.01
-3.87
0.03
0.06
0.15
-0.51
-0.09
-0.92

> <PUBCHEM_SHAPE_SELFOVERLAP>
401.585

> <PUBCHEM_SHAPE_VOLUME>
130.7

> <PUBCHEM_COORDINATE_TYPE>
2
5
10

$$$$
1549073
  -OEChem-03252417583D

 27 26  0     1  0  0  0  0  0999 V2000
   -4.0156    0.6394   -0.5608 O   0  5  0  0  0  0  0  0  0  0  0  0
   -2.0895    1.8054   -0.1958 O   0  0  0  0  0  0  0  0  0  0  0  0
   -2.8699   -1.7025    0.3864 N   0  3  0  0  0  0  0  0  0  0  0  0
    2.0319    0.2173   -0.0895 N   0  3  0  0  0  0  0  0  0  0  0  0
    4.0463    1.4268    0.5417 N   0  0  0  0  0  0  0  0  0  0  0  0
    4.1902   -0.8267   -0.2682 N   0  0  0  0  0  0  0  0  0  0  0  0
   -0.7637   -0.5087    0.7287 C   0  0  0  0  0  0  0  0  0  0  0  0
   -2.2919   -0.3661    0.7335 C   0  0  1  0  0  0  0  0  0  0  0  0
   -0.1586   -0.7912   -0.6539 C   0  0  0  0  0  0  0  0  0  0  0  0
    1.3548   -0.9770   -0.5895 C   0  0  0  0  0  0  0  0  0  0  0  0
   -2.8521    0.8020   -0.0965 C   0  0  0  0  0  0  0  0  0  0  0  0
    3.4182    0.2812    0.0640 C   0  0  0  0  0  0  0  0  0  0  0  0
   -0.3276    0.4089    1.1411 H   0  0  0  0  0  0  0  0  0  0  0  0
   -0.4739   -1.3136    1.4174 H   0  0  0  0  0  0  0  0  0  0  0  0
   -2.6139   -0.1880    1.7670 H   0  0  0  0  0  0  0  0  0  0  0  0
   -0.3873    0.0344   -1.3370 H   0  0  0  0  0  0  0  0  0  0  0  0
   -0.5948   -1.6991   -1.0839 H   0  0  0  0  0  0  0  0  0  0  0  0
    1.7277   -1.1876   -1.5973 H   0  0  0  0  0  0  0  0  0  0  0  0
    1.5912   -1.8159    0.0739 H   0  0  0  0  0  0  0  0  0  0  0  0
   -3.8884   -1.7083    0.5317 H   0  0  0  0  0  0  0  0  0  0  0  0
   -2.4767   -2.4540    0.9687 H   0  0  0  0  0  0  0  0  0  0  0  0
   -2.7060   -1.9487   -0.5984 H   0  0  0  0  0  0  0  0  0  0  0  0
    1.4981    1.0525    0.1423 H   0  0  0  0  0  0  0  0  0  0  0  0
    3.5102    2.2536    0.7935 H   0  0  0  0  0  0  0  0  0  0  0  0
    5.0567    1.4675    0.6515 H   0  0  0  0  0  0  0  0  0  0  0  0
    3.7836   -1.6881   -0.6224 H   0  0  0  0  0  0  0  0  0  0  0  0
    5.2021   -0.8045   -0.1648 H   0  0  0  0  0  0  0  0  0  0  0  0
  1 11  1  0  0  0  0
  2 11  2  0  0  0  0
  3  8  1  0  0  0  0
  3 20  1  0  0  0  0
  3 21  1  0  0  0  0
  3 22  1  0  0  0  0
  4 10  1  0  0  0  0
  4 12  2  0  0  0  0
  4 23  1  0  0  0  0
  5 12  1  0  0  0  0
  5 24  1  0  0  0  0
  5 25  1  0  0  0  0
  6 12  1  0  0  0  0
  6 26  1  0  0  0  0
  6 27  1  0  0  0  0
  7  8  1  0  0  0  0
  7  9  1  0  0  0  0
  7 13  1  0  0  0  0
  7 14  1  0  0  0  0
  8 11  1  0  0  0  0
  8 15  1  0  0  0  0
  9 10  1  0  0  0  0
  9 16  1  0  0  0  0
  9 17  1  0  0  0  0
 10 18  1  0  0  0  0
 10 19  1  0  0  0  0
M  CHG  3   1  -1   3   1   4   1
M  END
> <PUBCHEM_COMPOUND_CID>
1549073

> <PUBCHEM_CONFORMER_RMSD>
0.6

> <PUBCHEM_CONFORMER_DIVERSEORDER>
1
96
42
92
77
50
22
94
19
45
59
98
2
72
5
75
69
38
88
6
25
85
95
82
64
87
18
48
71
100
73
47
63
15
93
55
99
34
76
89
81
4
84
16
74
37
67
60
32
52
97
51
57
7
80
35
58
43
20
79
90
46
21
78
17
14
29
12
10
61
66
62
70
54
56
36
40
3
30
33
23
68
41
11
24
86
13
53
65
27
91
28
8
44
39
9
83
26
31
49

> <PUBCHEM_MMFF94_PARTIAL_CHARGES>
18
1 -0.9
10 0.33
11 0.91
12 1.2
2 -0.9
20 0.45
21 0.45
22 0.45
23 0.45
24 0.45
25 0.45
26 0.45
27 0.45
3 -0.85
4 -0.84
5 -0.97
6 -0.97
8 0.4

> <PUBCHEM_EFFECTIVE_ROTOR_COUNT>
5

> <PUBCHEM_PHARMACOPHORE_FEATURES>
9
1 1 acceptor
1 2 acceptor
1 3 cation
1 3 donor
1 4 donor
1 5 donor
1 6 donor
3 1 2 11 anion
4 4 5 6 12 cation

> <PUBCHEM_HEAVY_ATOM_COUNT>
12

> <PUBCHEM_ATOM_DEF_STEREO_COUNT>
1

> <PUBCHEM_ATOM_UDEF_STEREO_COUNT>
0

> <PUBCHEM_BOND_DEF_STEREO_COUNT>
0

> <PUBCHEM_BOND_UDEF_STEREO_COUNT>
0

> <PUBCHEM_ISOTOPIC_ATOM_COUNT>
0

> <PUBCHEM_COMPONENT_COUNT>
1

> <PUBCHEM_CACTVS_TAUTO_COUNT>
2

> <PUBCHEM_CONFORMER_ID>
0017A31100000001

> <PUBCHEM_MMFF94_ENERGY>
10.4509

> <PUBCHEM_FEATURE_SELFOVERLAP>
45.817

> <PUBCHEM_SHAPE_FINGERPRINT>
10608611 8 18412263917617923168
11132069 177 18186518812789434900
124424 183 18410576154558445546
12932764 1 18337689536974194754
13296909 8 18259987106337343599
14325111 11 18412829101065147194
18186145 218 17988657297846774354
20201158 50 18341897363720599385
20281407 28 12685092613820471190
20645477 56 18335991861388251429
21293036 1 16845567617177062447
22926399 37 17489869340889828001
23402539 116 18335696153153880559
23557571 272 18339376231108782423
351380 180 18411974737427782928
449060 23 11311760757630804493
528716 315 13542464271736390093
548570 60 18342452647379183904
57812782 119 18342740706419128042
6333449 129 18409732859299690347

> <PUBCHEM_SHAPE_MULTIPOLES>
215.29
7.95
1.49
0.81
4.71
0.21
0.03
1.8
0.09
-0.42
0
-0.16
-0.07
0.78

> <PUBCHEM_SHAPE_SELFOVERLAP>
402.166

> <PUBCHEM_SHAPE_VOLUME>
130.2

> <PUBCHEM_COORDINATE_TYPE>
2
5
10

$$$$
